test/test_perturbation_outputs/pert_min_cost/pglib_opf_case1888_rte.m
%% MATPOWER Case Format : Version 2
function mpc = pglib_opf_case1888_rte
mpc.version = '2';

%%-----  Power Flow Data  -----%%
%% system MVA base
mpc.baseMVA = 100.0;
%% bus data
%    bus_i    type    Pd    Qd    Gs    Bs    area    Vm    Va    baseKV    zone    Vmax    Vmin
mpc.bus = [
	1	1	5.8	-5.8	0.0	0.0	1	0.98889	0.0	225.0	1	1.08889	0.88889				
	2	1	0.0	0.0	0.0	0.0	1	1.07552	0.0	380.0	1	1.10263	1.04841				
	3	1	142.5	-13.4	0.0	0.0	1	1.04444	0.0	225.0	1	1.08444	1.00444				
	4	1	0.0	0.0	0.0	0.0	1	1.00334	0.0	150.0	1	1.10667	0.9				
	5	1	32.8	-5.3	0.0	0.0	1	1.01111	0.0	225.0	1	1.08889	0.93333				
	6	1	40.2	4.0	0.0	0.0	1	1.01111	0.0	225.0	1	1.08889	0.93333				
	7	1	0.0	0.0	0.0	0.0	1	1.07237	0.0	380.0	1	1.10526	1.03947				
	8	1	0.0	0.0	0.0	0.0	1	1.07237	0.0	380.0	1	1.10526	1.03947				
	9	1	0.0	0.0	0.0	0.0	1	1.04739	0.0	225.0	1	1.09035	1.00444				
	10	1	148.8	14.899999999999999	0.0	0.0	1	1.01111	0.0	225.0	1	1.08889	0.93333				
	11	1	25.6	5.0	0.0	0.0	1	1.04666	0.0	225.0	1	1.08889	1.00444				
	12	1	39.1	8.7	0.0	0.0	1	1.04666	0.0	225.0	1	1.08889	1.00444				
	13	1	70.5	17.2	0.0	0.0	1	1.04666	0.0	225.0	1	1.08889	1.00444				
	14	2	36.0	-4.2	0.0	0.0	1	1.01626	0.0	225.0	1	1.08252	0.95				
	15	1	0.0	0.0	0.0	0.0	1	1.04666	0.0	225.0	1	1.08889	1.00444				
	16	1	0.0	0.0	0.0	0.0	1	1.04666	0.0	225.0	1	1.08889	1.00444				
	17	1	23.7	-12.4	0.0	0.0	1	0.98889	0.0	225.0	1	1.08889	0.88889				
	18	1	5.9	-4.8	0.0	0.0	1	1.0415	0.0	225.0	1	1.09633	0.98667				
	19	1	34.0	3.7000000000000006	0.0	0.0	1	1.04666	0.0	225.0	1	1.08889	1.00444				
	20	1	6.9	0.8	0.0	0.0	1	1.04666	0.0	225.0	1	1.08889	1.00444				
	21	1	9.2	-29.100000000000005	0.0	0.0	1	1.04666	0.0	225.0	1	1.08889	1.00444				
	22	1	67.7	-3.6000000000000005	0.0	0.0	1	1.03778	0.0	225.0	1	1.08889	0.98667				
	23	1	25.4	-2.7	0.0	0.0	1	0.98889	0.0	225.0	1	1.08889	0.88889				
	25	1	64.0	4.6	0.0	0.0	1	1.04666	0.0	225.0	1	1.08444	1.00889				
	27	1	71.6	46.7	0.0	0.0	1	1.01111	0.0	225.0	1	1.08889	0.93333				
	28	1	105.4	6.9	0.0	0.0	1	1.04666	0.0	225.0	1	1.08889	1.00444				
	29	1	0.0	0.0	0.0	0.0	1	1.07684	0.0	380.0	1	1.10526	1.04842				
	30	1	0.0	0.0	0.0	0.0	1	1.07684	0.0	380.0	1	1.10526	1.04842				
	31	1	21.7	0.9000000000000001	0.0	0.0	1	1.04666	0.0	225.0	1	1.08444	1.00889				
	33	1	68.9	2.6	0.0	0.0	1	1.04666	0.0	225.0	1	1.08444	1.00889				
	34	1	50.6	12.7	0.0	0.0	1	1.04666	0.0	225.0	1	1.08889	1.00444				
	35	1	17.0	2.1	0.0	0.0	1	1.02333	0.0	150.0	1	1.08	0.96667				
	36	1	38.2	6.3	0.0	0.0	1	1.04606	0.0	225.0	1	1.09212	1.0				
	37	1	0.0	0.0	0.0	0.0	1	1.07655	0.0	380.0	1	1.10526	1.04785				
	38	1	89.0	9.6	0.0	0.0	1	1.03778	0.0	225.0	1	1.08889	0.98667				
	39	1	70.9	-2.3	0.0	0.0	1	1.02889	0.0	225.0	1	1.08889	0.96889				
	40	1	136.2	-10.7	0.0	0.0	1	1.05263	0.0	380.0	1	1.10526	1.0				
	41	1	64.6	17.3	0.0	0.0	1	1.01111	0.0	225.0	1	1.08889	0.93333				
	42	1	13.4	3.3000000000000003	0.0	0.0	1	0.98889	0.0	225.0	1	1.08889	0.88889				
	43	1	33.3	4.7	0.0	0.0	1	0.98889	0.0	225.0	1	1.08889	0.88889				
	44	1	211.60000000000002	-1.3	0.0	0.0	1	1.0447	0.0	225.0	1	1.08496	1.00444				
	45	1	92.1	-9.1	0.0	0.0	1	1.04666	0.0	225.0	1	1.08889	1.00444				
	46	2	0.0	0.0	0.0	0.0	1	1.00422	0.0	150.0	1	1.10843	0.9				
	47	1	0.0	0.0	0.0	0.0	1	1.04666	0.0	225.0	1	1.08889	1.00444				
	48	1	0.0	0.0	0.0	0.0	1	1.04666	0.0	225.0	1	1.08889	1.00444				
	49	1	63.7	84.5	0.0	-80.0	1	1.04666	0.0	225.0	1	1.08889	1.00444				
	50	1	10.4	6.6000000000000005	0.0	0.0	1	1.04666	0.0	225.0	1	1.08889	1.00444				
	51	1	0.0	0.0	0.0	0.0	1	1.04445	0.0	225.0	1	1.08889	1.0				
	52	1	68.7	16.5	0.0	0.0	1	0.98889	0.0	225.0	1	1.08889	0.88889				
	53	1	101.2	15.9	0.0	0.0	1	1.02889	0.0	225.0	1	1.08889	0.96889				
	54	1	0.0	0.0	0.0	0.0	1	1.05263	0.0	380.0	1	1.10526	1.0				
	55	1	28.9	10.6	0.0	0.0	1	1.04666	0.0	225.0	1	1.08444	1.00889				
	56	1	28.199999999999996	2.1	0.0	0.0	1	1.04666	0.0	225.0	1	1.08444	1.00889				
	57	1	27.3	-10.9	0.0	0.0	1	1.01139	0.0	225.0	1	1.08945	0.93333				
	58	1	0.0	0.0	0.0	0.0	1	1.00431	0.0	150.0	1	1.10862	0.9				
	59	1	36.8	20.3	0.0	0.0	1	1.04666	0.0	225.0	1	1.08444	1.00889				
	60	1	36.5	30.8	0.0	0.0	1	1.04666	0.0	225.0	1	1.08444	1.00889				
	61	1	0.0	0.0	0.0	0.0	1	1.03333	0.0	225.0	1	1.08889	0.97778				
	62	1	8.4	-0.3	0.0	0.0	1	0.98889	0.0	225.0	1	1.08889	0.88889				
	63	1	13.200000000000001	-6.3	0.0	0.0	1	1.01111	0.0	225.0	1	1.08889	0.93333				
	64	1	13.200000000000001	3.3000000000000003	0.0	0.0	1	1.04666	0.0	225.0	1	1.08889	1.00444				
	65	1	22.7	2.5	0.0	0.0	1	1.04666	0.0	225.0	1	1.08889	1.00444				
	66	1	11.4	-9.7	0.0	0.0	1	1.04445	0.0	225.0	1	1.08889	1.0				
	67	1	10.2	-1.3	0.0	0.0	1	1.03778	0.0	225.0	1	1.08889	0.98667				
	68	1	0.0	0.0	0.0	0.0	1	0.98889	0.0	225.0	1	1.08889	0.88889				
	69	1	0.0	0.0	0.0	0.0	1	0.98889	0.0	225.0	1	1.08889	0.88889				
	70	1	0.0	0.0	0.0	0.0	1	1.05921	0.0	380.0	1	1.10526	1.01316				
	71	1	39.2	2.8	0.0	0.0	1	1.04666	0.0	225.0	1	1.08889	1.00444				
	72	1	19.3	3.3000000000000003	0.0	-80.0	1	1.04666	0.0	225.0	1	1.08889	1.00444				
	73	1	0.0	0.0	0.0	0.0	1	1.03333	0.0	225.0	1	1.08889	0.97778				
	74	1	0.0	0.0	0.0	0.0	1	1.03333	0.0	225.0	1	1.08889	0.97778				
	75	1	131.9	3.2	0.0	0.0	1	1.04666	0.0	225.0	1	1.08444	1.00889				
	76	1	0.0	0.0	0.0	0.0	1	1.04444	0.0	225.0	1	1.08444	1.00444				
	77	1	0.0	0.0	0.0	0.0	1	1.07237	0.0	380.0	1	1.10263	1.04211				
	78	1	94.6	-1.9	0.0	0.0	1	1.04444	0.0	225.0	1	1.08444	1.00444				
	79	1	-1.7000000000000002	-4.6	0.0	0.0	1	1.0469	0.0	225.0	1	1.08936	1.00444				
	80	1	3.6000000000000005	-7.200000000000001	0.0	0.0	1	1.0469	0.0	225.0	1	1.08936	1.00444				
	81	1	35.4	10.9	0.0	0.0	1	0.98889	0.0	225.0	1	1.08889	0.88889				
	82	2	15.1	0.7	0.0	0.0	1	1.01562	0.0	225.0	1	1.08124	0.95				
	83	1	57.4	18.0	0.0	0.0	1	0.98889	0.0	225.0	1	1.08889	0.88889				
	84	1	89.9	-5.8	0.0	0.0	1	1.04445	0.0	225.0	1	1.08889	1.0				
	85	1	0.0	0.0	0.0	0.0	1	1.04445	0.0	225.0	1	1.08889	1.0				
	86	1	239.8	17.5	0.0	0.0	1	1.07798	0.0	380.0	1	1.10526	1.0507				
	87	1	35.5	16.0	0.0	0.0	1	1.04445	0.0	225.0	1	1.08889	1.0				
	88	1	76.1	23.0	0.0	0.0	1	1.04445	0.0	225.0	1	1.08889	1.0				
	89	2	0.0	0.0	0.0	0.0	1	1.0	0.0	150.0	1	1.1	0.9				
	90	1	21.3	12.0	0.0	0.0	1	1.03778	0.0	225.0	1	1.08889	0.98667				
	91	1	11.2	-5.2	0.0	0.0	1	1.04666	0.0	225.0	1	1.08444	1.00889				
	92	1	0.0	0.0	0.0	0.0	1	1.07369	0.0	380.0	1	1.10526	1.04211				
	93	1	0.0	0.0	0.0	0.0	1	1.07369	0.0	380.0	1	1.10526	1.04211				
	96	1	11.7	1.3	0.0	0.0	1	1.04445	0.0	225.0	1	1.08889	1.0				
	97	1	6.1	1.4	0.0	0.0	1	1.04666	0.0	225.0	1	1.08889	1.00444				
	98	1	31.6	2.6	0.0	0.0	1	1.0	0.0	150.0	1	1.1	0.9				
	99	1	68.9	-11.7	0.0	0.0	1	1.04445	0.0	225.0	1	1.08889	1.0				
	100	2	0.2	0.0	0.0	0.0	1	1.01647	0.0	225.0	1	1.08294	0.95				
	101	1	0.0	0.0	0.0	0.0	1	1.01111	0.0	225.0	1	1.08889	0.93333				
	102	1	0.0	0.0	0.0	0.0	1	1.07237	0.0	380.0	1	1.10526	1.03947				
	103	1	0.0	0.0	0.0	0.0	1	1.07237	0.0	380.0	1	1.10526	1.03947				
	104	1	0.0	0.0	0.0	0.0	1	1.04666	0.0	225.0	1	1.08889	1.00444				
	105	1	0.0	0.0	0.0	0.0	1	1.03778	0.0	225.0	1	1.08889	0.98667				
	106	1	12.1	4.5	0.0	0.0	1	1.04666	0.0	225.0	1	1.08889	1.00444				
	107	1	106.1	-0.3	0.0	0.0	1	1.01111	0.0	225.0	1	1.08889	0.93333				
	108	1	0.0	0.0	0.0	0.0	1	1.07237	0.0	380.0	1	1.10526	1.03947				
	109	1	43.3	8.4	0.0	0.0	1	1.04445	0.0	225.0	1	1.08889	1.0				
	110	1	33.2	-7.5	0.0	0.0	1	1.04715	0.0	225.0	1	1.08986	1.00444				
	111	1	99.5	-12.4	0.0	0.0	1	1.04806	0.0	225.0	1	1.09612	1.0				
	112	1	116.40000000000002	-6.7	0.0	0.0	1	1.03778	0.0	225.0	1	1.08889	0.98667				
	113	1	65.7	14.7	0.0	0.0	1	1.0474	0.0	225.0	1	1.09036	1.00444				
	114	1	107.2	21.2	0.0	0.0	1	1.00667	0.0	225.0	1	1.08889	0.92444				
	115	1	56.89999999999999	-2.7	0.0	0.0	1	1.0414	0.0	225.0	1	1.09614	0.98667				
	117	1	0.0	0.0	0.0	0.0	1	1.07237	0.0	380.0	1	1.10526	1.03947				
	119	1	123.6	-19.8	0.0	0.0	1	1.04444	0.0	225.0	1	1.08444	1.00444				
	120	1	33.3	-21.3	0.0	0.0	1	1.04666	0.0	225.0	1	1.08444	1.00889				
	121	1	0.0	0.0	0.0	0.0	1	1.06579	0.0	380.0	1	1.10263	1.02895				
	122	1	1.7000000000000002	-4.4	0.0	0.0	1	1.01111	0.0	225.0	1	1.08889	0.93333				
	123	1	140.3	17.3	0.0	0.0	1	1.01111	0.0	225.0	1	1.08889	0.93333				
	124	1	33.7	-1.8000000000000003	0.0	0.0	1	1.0	0.0	63.0	1	1.07937	0.92063				
	125	2	0.0	0.0	0.0	0.0	1	1.01238	0.0	225.0	1	1.07476	0.95				
	126	1	-1.9	-5.4	0.0	0.0	1	1.04884	0.0	225.0	1	1.09768	1.0				
	127	1	0.0	0.0	0.0	0.0	1	1.07895	0.0	380.0	1	1.10526	1.05263				
	128	1	0.0	0.0	0.0	0.0	1	1.07895	0.0	380.0	1	1.10526	1.05263				
	129	1	0.0	0.0	0.0	0.0	1	1.07895	0.0	380.0	1	1.10526	1.05263				
	130	1	0.0	0.0	0.0	0.0	1	1.07895	0.0	380.0	1	1.10526	1.05263				
	131	1	0.0	0.0	0.0	0.0	1	1.04156	0.0	225.0	1	1.09645	0.98667				
	132	1	0.0	0.0	0.0	0.0	1	1.04156	0.0	225.0	1	1.09645	0.98667				
	133	1	0.0	0.0	0.0	0.0	1	1.07237	0.0	380.0	1	1.10526	1.03947				
	134	1	77.3	-10.6	0.0	0.0	1	1.02889	0.0	225.0	1	1.08889	0.96889				
	135	1	28.1	3.8	0.0	0.0	1	1.04666	0.0	225.0	1	1.08444	1.00889				
	136	1	-5.2	-9.4	0.0	0.0	1	1.07237	0.0	380.0	1	1.10526	1.03947				
	137	1	106.4	8.0	0.0	0.0	1	1.01111	0.0	225.0	1	1.08889	0.93333				
	138	1	0.0	0.0	0.0	0.0	1	1.07237	0.0	380.0	1	1.10526	1.03947				
	140	1	113.7	-8.3	0.0	0.0	1	1.04666	0.0	225.0	1	1.08444	1.00889				
	141	1	44.6	0.5	0.0	0.0	1	1.04666	0.0	225.0	1	1.08444	1.00889				
	142	1	165.2	-11.8	0.0	0.0	1	1.04444	0.0	225.0	1	1.08444	1.00444				
	143	1	29.2	2.1	0.0	0.0	1	1.01111	0.0	225.0	1	1.08889	0.93333				
	144	1	32.8	4.4	0.0	0.0	1	1.01111	0.0	225.0	1	1.08889	0.93333				
	145	1	19.0	-18.1	0.0	0.0	1	1.04698	0.0	225.0	1	1.08952	1.00444				
	146	1	0.0	0.0	0.0	0.0	1	1.04739	0.0	225.0	1	1.09478	1.0				
	147	1	0.0	0.0	0.0	0.0	1	1.04739	0.0	225.0	1	1.09478	1.0				
	148	1	37.1	5.6	0.0	0.0	1	1.04445	0.0	225.0	1	1.08889	1.0				
	149	1	20.0	-3.9	0.0	0.0	1	1.04666	0.0	225.0	1	1.08889	1.00444				
	150	1	38.1	1.6	0.0	0.0	1	1.04666	0.0	225.0	1	1.08444	1.00889				
	151	1	24.8	-1.8000000000000003	0.0	0.0	1	1.04445	0.0	225.0	1	1.08889	1.0				
	152	1	0.0	0.0	0.0	0.0	1	1.04666	0.0	225.0	1	1.08444	1.00889				
	153	1	0.0	0.0	0.0	0.0	1	1.04666	0.0	225.0	1	1.08444	1.00889				
	154	1	0.0	0.0	0.0	0.0	1	1.04666	0.0	225.0	1	1.08444	1.00889				
	155	1	0.0	0.0	0.0	0.0	1	1.06579	0.0	380.0	1	1.10263	1.02895				
	156	1	155.3	26.5	0.0	0.0	1	0.98889	0.0	225.0	1	1.08889	0.88889				
	157	1	0.0	0.0	0.0	0.0	1	1.04883	0.0	225.0	1	1.09766	1.0				
	158	1	0.0	0.0	0.0	0.0	1	1.07895	0.0	380.0	1	1.10526	1.05263				
	159	1	21.5	4.4	0.0	0.0	1	1.03778	0.0	225.0	1	1.08889	0.98667				
	160	1	26.200000000000003	2.1	0.0	0.0	1	1.04445	0.0	225.0	1	1.08889	1.0				
	161	1	0.0	0.0	0.0	0.0	1	1.04444	0.0	225.0	1	1.08444	1.00444				
	162	1	0.0	0.0	0.0	0.0	1	1.04444	0.0	225.0	1	1.08444	1.00444				
	163	1	0.0	0.0	0.0	0.0	1	1.04444	0.0	225.0	1	1.08444	1.00444				
	164	1	55.3	-11.4	0.0	0.0	1	1.04444	0.0	225.0	1	1.08444	1.00444				
	165	1	0.0	0.0	0.0	0.0	1	1.01111	0.0	225.0	1	1.08889	0.93333				
	166	1	30.0	12.3	0.0	0.0	1	1.03778	0.0	225.0	1	1.08889	0.98667				
	167	1	0.0	0.0	0.0	0.0	1	1.0447	0.0	225.0	1	1.08941	1.0				
	168	1	0.0	0.0	0.0	0.0	1	1.07895	0.0	380.0	1	1.10526	1.05263				
	169	2	0.0	0.0	0.0	0.0	1	1.0	0.0	225.0	1	1.1	0.9				
	170	1	17.8	2.6	0.0	0.0	1	1.02333	0.0	150.0	1	1.08	0.96667				
	171	1	25.3	-3.2	0.0	0.0	1	1.04666	0.0	225.0	1	1.08889	1.00444				
	172	1	-3.7000000000000006	-2.0	0.0	0.0	1	1.04666	0.0	225.0	1	1.08889	1.00444				
	173	1	37.3	0.7	0.0	0.0	1	0.98889	0.0	225.0	1	1.08889	0.88889				
	181	1	107.89999999999999	3.9	0.0	0.0	1	1.04445	0.0	225.0	1	1.08889	1.0				
	182	1	29.5	6.800000000000001	0.0	0.0	1	1.03778	0.0	225.0	1	1.08889	0.98667				
	183	1	0.0	0.0	0.0	0.0	1	1.07237	0.0	380.0	1	1.10526	1.03947				
	184	1	0.0	0.0	0.0	0.0	1	1.07237	0.0	380.0	1	1.10526	1.03947				
	185	1	0.0	0.0	0.0	0.0	1	1.07237	0.0	380.0	1	1.10526	1.03947				
	186	1	0.0	0.0	0.0	0.0	1	1.07237	0.0	380.0	1	1.10526	1.03947				
	187	1	28.1	-10.0	0.0	0.0	1	1.00667	0.0	225.0	1	1.08889	0.92444				
	188	1	-2.0	-1.1	0.0	0.0	1	1.03778	0.0	225.0	1	1.08889	0.98667				
	189	1	65.8	19.1	0.0	0.0	1	1.04444	0.0	225.0	1	1.08444	1.00444				
	190	1	-2.3	1.2	0.0	0.0	1	1.07237	0.0	380.0	1	1.10263	1.04211				
	191	1	-2.3	1.4	0.0	0.0	1	1.07237	0.0	380.0	1	1.10263	1.04211				
	192	1	0.0	0.0	0.0	0.0	1	1.04666	0.0	225.0	1	1.08889	1.00444				
	193	1	0.0	0.0	0.0	0.0	1	1.03333	0.0	225.0	1	1.08889	0.97778				
	194	1	0.0	0.0	0.0	0.0	1	1.03333	0.0	225.0	1	1.08889	0.97778				
	195	1	83.6	-8.6	0.0	0.0	1	1.02889	0.0	225.0	1	1.08889	0.96889				
	196	1	0.0	0.0	0.0	0.0	1	1.01111	0.0	225.0	1	1.08889	0.93333				
	197	1	0.0	0.0	0.0	0.0	1	1.01111	0.0	225.0	1	1.08889	0.93333				
	198	1	57.49999999999999	10.2	0.0	0.0	1	1.04444	0.0	225.0	1	1.08444	1.00444				
	199	1	177.4	-31.4	0.0	0.0	1	1.04444	0.0	225.0	1	1.08444	1.00444				
	200	1	0.0	0.0	0.0	0.0	1	1.03333	0.0	225.0	1	1.08889	0.97778				
	201	1	0.0	0.0	0.0	0.0	1	1.04444	0.0	225.0	1	1.08444	1.00444				
	202	1	124.2	-3.2	0.0	0.0	1	1.02	0.0	225.0	1	1.08889	0.95111				
	203	1	35.3	1.9	0.0	0.0	1	1.04666	0.0	225.0	1	1.08889	1.00444				
	204	1	51.6	-4.0	0.0	0.0	1	1.03778	0.0	225.0	1	1.08889	0.98667				
	205	1	16.9	-1.8000000000000003	0.0	0.0	1	1.04666	0.0	225.0	1	1.08444	1.00889				
	206	1	0.0	0.0	0.0	0.0	1	1.06579	0.0	380.0	1	1.10263	1.02895				
	207	1	38.6	-0.7	0.0	0.0	1	1.04666	0.0	225.0	1	1.08889	1.00444				
	208	1	0.0	0.0	0.0	0.0	1	0.98889	0.0	225.0	1	1.08889	0.88889				
	209	1	171.1	24.7	0.0	0.0	1	1.04444	0.0	225.0	1	1.08444	1.00444				
	210	1	46.3	14.3	0.0	0.0	1	1.04085	0.0	225.0	1	1.09504	0.98667				
	211	1	58.599999999999994	9.8	0.0	0.0	1	1.04666	0.0	225.0	1	1.08444	1.00889				
	212	1	14.6	-0.7	0.0	0.0	1	1.04666	0.0	225.0	1	1.08444	1.00889				
	213	1	75.4	25.3	0.0	0.0	1	1.01111	0.0	225.0	1	1.08889	0.93333				
	215	1	0.0	0.0	0.0	0.0	1	1.07237	0.0	380.0	1	1.10526	1.03947				
	216	1	74.9	-2.9	0.0	0.0	1	1.07237	0.0	380.0	1	1.10526	1.03947				
...
];

%% generator data
%    bus    Pg    Qg    Qmax    Qmin    Vg    mBase    status    Pmax    Pmin    Pc1    Pc2    Qc1min    Qc1max    Qc2min    Qc2max    ramp_agc    ramp_10    ramp_30    ramp_q    apf
mpc.gen = [
	1268	44.5	9.0	27.0	-9.0	1.01773	100.0	1	45.0	44.0															
	1268	44.5	9.0	27.0	-9.0	1.01773	100.0	1	45.0	44.0															
	1356	13.200000000000001	-2.5	7.000000000000001	-12.0	1.014075	100.0	1	22.0	4.4															
	89	15.0	2.0	13.0	-9.0	1.0	100.0	1	25.0	5.0															
	125	14.04	-4.5	8.0	-17.0	1.01238	100.0	1	23.4	4.68															
	908	12.0	1.95	2.0	1.9	1.004395	100.0	1	20.0	4.0															
	817	0.0	0.0	1.0	0.9000000000000001	1.004235	100.0	0	12.0	2.4															
	817	8.4	0.95	1.0	0.9000000000000001	1.004235	100.0	1	14.000000000000002	2.8															
	817	0.0	0.0	1.0	0.9000000000000001	1.004235	100.0	0	12.0	2.4															
	1335	18.0	0.0	10.0	-10.0	1.0	100.0	1	30.0	6.0															
	396	6.6000000000000005	3.0	5.0	1.0	1.0	100.0	1	11.0	2.2															
	396	6.6000000000000005	3.0	5.0	1.0	1.0	100.0	1	11.0	2.2															
	975	21.0	0.0	15.0	-15.0	1.0	100.0	1	35.0	7.000000000000001															
	858	33.24	0.0	0.0	0.0	1.019305	100.0	1	55.39999999999999	11.08															
	921	25.2	2.5	25.0	-20.0	1.0	100.0	1	42.0	8.4															
	921	25.2	2.5	25.0	-20.0	1.0	100.0	1	42.0	8.4															
	1255	52.2	0.8699999999999999	26.1	-24.36	1.01587	100.0	1	87.0	17.4															
	169	4.98	0.0	8.3	-8.3	1.0	100.0	1	8.3	1.66															
	448	2.0	0.0	0.0	0.0	1.01761	100.0	1	4.0	0.0															
	241	7.8	0.0	5.0	-5.0	1.0	100.0	1	13.0	2.6															
	241	7.8	0.0	5.0	-5.0	1.0	100.0	1	13.0	2.6															
	241	7.8	0.0	5.0	-5.0	1.0	100.0	1	13.0	2.6															
	241	7.8	0.0	5.0	-5.0	1.0	100.0	1	13.0	2.6															
	270	30.0	9.0	27.0	-9.0	1.00923	100.0	1	50.0	10.0															
	885	4.8	0.0	0.0	0.0	1.018935	100.0	1	8.0	1.6															
	885	4.8	0.0	0.0	0.0	1.018935	100.0	1	8.0	1.6															
	876	32.4	0.0	0.0	0.0	1.018115	100.0	1	54.0	10.8															
	46	18.0	3.0	10.0	-4.0	1.004215	100.0	1	30.0	6.0															
	803	8.28	-0.465	4.63	-5.56	1.012885	100.0	1	13.8	2.76															
	356	24.84	0.415	12.42	-11.59	1.01705	100.0	1	41.4	8.28															
	100	78.0	16.5	59.0	-26.0	1.01647	100.0	1	130.0	26.0															
	707	12.6	0.0	8.0	-8.0	1.0	100.0	1	21.0	4.2															
	973	-0.0	0.0	0.0	0.0	1.01855	100.0	0	0.0	-8.0															
	973	31.8	3.5000000000000004	17.0	-10.0	1.01855	100.0	1	53.0	10.6															
	1118	33.0	0.0	0.0	0.0	1.013845	100.0	1	55.00000000000001	11.0															
	897	16.2	3.5000000000000004	10.0	-3.0	1.0	100.0	1	27.0	5.4															
	897	16.2	3.5000000000000004	10.0	-3.0	1.0	100.0	1	27.0	5.4															
	58	0.0	0.0	2.0	1.9	1.00431	100.0	0	6.0	1.2															
	82	15.18	0.0	0.0	0.0	1.01562	100.0	1	25.3	5.06															
	474	31.2	-1.5	10.0	-13.0	1.015335	100.0	1	52.0	10.4															
	1221	34.8	0.0	35.0	-35.0	1.0	100.0	1	57.99999999999999	11.6															
	355	37.2	0.0	40.0	-40.0	1.0	100.0	1	62.0	12.4															
	471	46.8	0.5	1.0	0.0	1.017105	100.0	1	78.0	15.6															
	1321	6.6000000000000005	0.95	1.0	0.9000000000000001	1.004235	100.0	1	11.0	2.2															
	1321	1.25	0.0	0.1	-0.1	1.004235	100.0	1	2.5	0.0															
	1829	14.099999999999998	0.0	8.0	-8.0	1.014295	100.0	1	23.5	4.7															
	1005	23.4	0.0	19.0	-19.0	1.00521	100.0	1	39.0	7.8															
	14	16.56	0.0	0.0	0.0	1.01626	100.0	1	27.6	5.52															
	14	14.400000000000002	0.0	0.0	0.0	1.01626	100.0	1	24.0	4.8															
	1628	434.99999999999994	-31.125000000000004	155.3	-217.55	1.0	100.0	1	670.0	200.0															
	1629	420.0	20.405	231.39	-190.58	1.0	100.0	1	700.0	140.0															
	1844	16.2	4.62	24.62	-15.380000000000003	1.0077585	100.0	1	27.0	5.4															
	1630	51.6	17.68	43.86	-8.5	0.9887625	100.0	1	86.0	17.2															
	1631	29.4	6.23	22.19	-9.73	0.989957	100.0	1	49.0	9.8															
	1846	19.2	0.0	8.36	-8.36	1.0	100.0	1	32.0	6.4															
	1632	19.2	0.0	8.36	-8.36	1.0	100.0	1	32.0	6.4															
	1847	19.2	-0.21	8.15	-8.57	1.0	100.0	1	32.0	6.4															
	1848	19.2	-0.21	8.15	-8.57	1.0	100.0	1	32.0	6.4															
	1852	55.2	9.57	54.56999999999999	-35.43	1.0	100.0	1	92.0	18.4															
	1854	55.2	11.48	56.48	-33.52	1.0	100.0	1	92.0	18.4															
	1633	600.075	22.385	421.39	-376.62	1.001355	100.0	1	945.0800000000002	255.07															
	1634	633.045	29.81	428.8299999999999	-369.21	1.000525	100.0	1	978.04	288.05															
	1635	616.08	29.075	428.06999999999994	-369.92	1.00053	100.0	1	976.0799999999999	256.08															
	1636	598.075	21.865	420.86000000000007	-377.13	1.0	100.0	1	943.0799999999999	253.07															
	1637	204.0	31.4	153.03	-90.23	1.0	100.0	1	252.0	156.0															
	1638	202.0	30.815000000000005	152.44	-90.81	1.0	100.0	1	250.0	154.0															
	1639	202.0	23.7	105.67999999999999	-58.28	1.0	100.0	1	250.0	154.0															
	1640	213.49999999999997	34.45	228.81	-159.91	1.0	100.0	1	305.0	122.0															
	1641	122.0	9.84	94.32	-74.64	1.003735	100.0	1	155.0	89.0															
	1642	34.8	1.44	21.65	-18.77	1.0	100.0	1	57.99999999999999	11.6															
	1643	34.8	2.675	16.01	-10.66	1.0	100.0	1	57.99999999999999	11.6															
	1855	34.8	1.26	21.47	-18.95	1.0	100.0	1	57.99999999999999	11.6															
	1644	34.8	2.715	16.05	-10.62	1.0	100.0	1	57.99999999999999	11.6															
	1645	34.8	2.475	15.810000000000002	-10.86	1.0	100.0	1	57.99999999999999	11.6															
	1646	198.0	28.134999999999998	146.45	-90.18	1.00036	100.0	1	263.0	133.0															
	1647	26.974999999999998	6.29	50.67	-38.09	1.0	100.0	1	44.96	8.99															
	1861	19.2	1.7500000000000002	19.75	-16.25	1.0	100.0	1	32.0	6.4															
	1648	601.29	186.38	530.99	-158.23	0.990834	100.0	1	936.29	266.29															
	1649	607.82	188.81	533.69	-156.07	0.9895395	100.0	1	942.82	272.82															
	1650	599.28	192.43	537.68	-152.82	0.9875395	100.0	1	924.2799999999999	274.28															
	1651	597.8	184.5	529.89	-160.89	0.994603	100.0	1	922.8	272.8															
	1652	813.0000000000001	264.02	681.04	-153.0	0.9975895	100.0	1	1308.0	318.0															
	1862	813.0000000000001	264.015	681.03	-153.0	0.99881	100.0	1	1308.0	318.0															
	1653	21.0	2.08	6.08	-1.92	1.0	100.0	1	35.0	7.000000000000001															
	1654	21.0	2.21	6.21	-1.79	1.0	100.0	1	35.0	7.000000000000001															
	1655	21.0	2.21	6.21	-1.79	1.0	100.0	1	35.0	7.000000000000001															
	1656	21.0	2.11	6.11	-1.8900000000000001	1.0	100.0	1	35.0	7.000000000000001															
	1657	21.0	2.11	6.11	-1.8900000000000001	1.0	100.0	1	35.0	7.000000000000001															
	1658	21.0	2.11	6.11	-1.8900000000000001	1.0	100.0	1	35.0	7.000000000000001															
	1863	22.18	2.645	18.45	-13.16	1.0	100.0	1	36.97	7.39															
	1659	22.18	2.645	18.45	-13.16	1.0	100.0	1	36.97	7.39															
	1660	22.18	3.55	18.45	-11.35	1.0	100.0	1	36.97	7.39															
	1661	22.18	3.205	18.11	-11.7	1.0	100.0	1	36.97	7.39															
	1662	22.18	2.4	18.21	-13.41	1.0	100.0	1	36.97	7.39															
	1663	22.18	2.75	18.55	-13.05	1.0	100.0	1	36.97	7.39															
	1865	12.0	2.32	12.32	-7.68	1.0	100.0	1	20.0	4.0															
	1866	18.59	2.03	17.85	-13.79	1.0	100.0	1	30.98	6.2															
	1664	18.59	2.03	17.85	-13.79	1.0	100.0	1	30.98	6.2															
	1665	18.59	2.195	18.01	-13.62	1.0	100.0	1	30.98	6.2															
	1867	18.59	2.195	18.01	-13.62	1.0	100.0	1	30.98	6.2															
	1666	18.59	2.07	17.89	-13.750000000000002	1.0	100.0	1	30.98	6.2															
	1868	18.59	1.915	17.74	-13.91	1.0	100.0	1	30.98	6.2															
	1667	833.5000000000001	235.58500000000004	656.06	-184.89	0.996488	100.0	1	1330.0	337.0															
	1668	863.5	236.51	656.92	-183.9	0.995021	100.0	1	1360.0	367.0															
	1669	863.5	227.61499999999998	648.03	-192.8	0.993275	100.0	1	1360.0	367.0															
	1670	1.45	88.775	281.46	-103.91	1.0094195	100.0	1	1.5	1.4															
	1873	144.0	24.03	94.03	-45.97	1.0	100.0	1	240.0	48.0															
	1874	144.0	25.11	95.11	-44.89	1.0	100.0	1	240.0	48.0															
	1671	587.72	208.7	524.6	-107.2	1.0	100.0	1	942.7200000000001	232.72															
	1673	598.74	206.28000000000003	511.64	-99.08	1.0	100.0	1	953.74	243.74															
	1674	597.74	228.04500000000002	555.41	-99.32	0.9995685	100.0	1	952.74	242.74															
	1675	952.9999999999999	277.96	682.28	-126.36	0.9996345	100.0	1	1503.0	403.0															
	1676	952.9999999999999	282.755	687.17	-121.66	1.00522	100.0	1	1503.0	403.0															
	1875	948.0	28.58	409.45	-352.29	1.0	100.0	1	1498.0	398.0															
	1677	948.0	28.545000000000005	409.41999999999996	-352.33	1.0	100.0	1	1498.0	398.0															
	2022	45.0	6.72	51.88	-38.44	1.0	100.0	1	75.0	15.0															
	1876	45.0	6.72	51.88	-38.44	1.0	100.0	1	75.0	15.0															
	1877	45.0	6.72	51.88	-38.44	1.0	100.0	1	75.0	15.0															
	1878	45.0	6.72	51.88	-38.44	1.0	100.0	1	75.0	15.0															
	1678	51.74999999999999	21.36	104.12000000000002	-61.4	1.0	100.0	1	95.0	8.5															
	1679	51.74999999999999	21.18	103.93999999999998	-61.58	1.0	100.0	1	95.0	8.5															
	1680	76.2	38.01	86.67	-10.65	1.0	100.0	1	148.2	4.2															
	1681	432.5	80.525	220.22	-59.17	1.0	100.0	1	685.0	180.0															
	1682	459.99999999999994	82.52	330.28	-165.24	0.9802185	100.0	1	610.0	310.0															
	1683	459.99999999999994	52.92	297.67	-191.83	0.980023	100.0	1	610.0	310.0															
	1684	452.50000000000006	-19.415	254.82	-293.65	1.0	100.0	1	700.0	204.99999999999997															
	1881	30.0	0.9000000000000001	15.6	-13.8	1.0	100.0	1	50.0	10.0															
	1882	30.0	0.5	15.2	-14.2	1.0	100.0	1	50.0	10.0															
	1685	30.0	1.105	15.810000000000002	-13.600000000000001	1.0	100.0	1	50.0	10.0															
	1883	30.0	1.105	15.810000000000002	-13.600000000000001	1.0	100.0	1	50.0	10.0															
	1884	30.0	1.105	15.810000000000002	-13.600000000000001	1.0	100.0	1	50.0	10.0															
	1885	30.0	0.9000000000000001	15.6	-13.8	1.0	100.0	1	50.0	10.0															
	1686	640.0	221.385	532.91	-90.14	1.0	100.0	1	1000.0	280.0															
	1687	640.0	223.92	535.45	-87.61	1.0	100.0	1	1000.0	280.0															
	1688	640.0	239.705	567.71	-88.3	1.0	100.0	1	1000.0	280.0															
	1689	0.0	0.0	559.16	-96.85	1.0	100.0	0	930.0000000000001	280.0															
	1888	34.2	0.0	17.35	-17.35	1.0	100.0	1	56.99999999999999	11.4															
	1690	345.0	32.025	219.77	-155.72	0.9858785	100.0	1	451.0	239.0															
	1691	42.0	20.31	51.24999999999999	-10.63	1.0	100.0	1	63.0	21.0															
	1692	341.3	37.96	258.1	-182.18	1.01132	100.0	1	433.8	248.8															
	1693	124.99	13.48	71.21	-44.25	1.0	100.0	1	168.17	81.81															
	1694	125.44	17.825	73.34	-37.69	1.0	100.0	1	168.6	82.28															
	1695	151.06	34.915	113.53	-43.7	1.0	100.0	1	248.21	53.90999999999999															
	1696	141.03	20.78	100.92000000000002	-59.36	1.0	100.0	1	238.09	43.97															
	1697	574.69	218.265	525.14	-88.61	1.0	100.0	1	919.6900000000002	229.69															
	1698	574.69	218.265	525.14	-88.61	1.0	100.0	1	919.6900000000002	229.69															
	1699	581.69	219.89000000000001	526.77	-86.99	1.0	100.0	1	926.6899999999999	236.68999999999997															
	1700	596.69	223.40499999999997	530.29	-83.48	1.0	100.0	1	941.69	251.69000000000003															
	1701	19.2	0.32	10.32	-9.68	1.0	100.0	1	32.0	6.4															
	1702	23.93	0.775	19.22	-17.67	1.0	100.0	1	39.88	7.980000000000001															
	1703	23.93	0.8	19.34	-17.74	1.0	100.0	1	39.88	7.980000000000001															
	1889	23.93	0.79	19.24	-17.66	1.0	100.0	1	39.88	7.980000000000001															
	1704	860.0	0.765	398.39	-396.86	1.0	100.0	1	1380.0	340.0															
	1705	860.0	-26.539999999999996	371.08	-424.16	1.0	100.0	1	1380.0	340.0															
	1890	14.400000000000002	1.39	5.35	-2.57	1.0	100.0	1	24.0	4.8															
	1891	14.400000000000002	1.525	5.48	-2.43	1.0	100.0	1	24.0	4.8															
	1892	14.400000000000002	1.035	5.0	-2.93	1.0	100.0	1	24.0	4.8															
	1706	14.400000000000002	1.33	5.29	-2.63	1.0	100.0	1	24.0	4.8															
	1707	14.395	2.51	10.0	-4.98	1.0	100.0	1	23.99	4.8															
	2026	14.395	0.735	8.26	-6.79	1.0	100.0	1	23.99	4.8															
	1898	14.395	2.685	10.17	-4.8	1.0	100.0	1	23.99	4.8															
	1708	14.395	1.805	1.81	1.8000000000000003	1.0	100.0	1	23.99	4.8															
	1709	14.395	2.675	10.16	-4.81	1.0	100.0	1	23.99	4.8															
	1710	17.39	2.34	12.23	-7.55	1.0	100.0	1	28.98	5.8															
	1711	17.39	2.425	12.31	-7.46	1.0	100.0	1	28.98	5.8															
	1712	798.0	87.935	615.09	-439.21999999999997	1.0	100.0	1	1308.0	288.0															
	1713	798.0	87.48	614.63	-439.67	1.001985	100.0	1	1308.0	288.0															
	1714	273.76	85.9	255.9	-84.1	1.01466	100.0	1	458.26000000000005	89.26															
	1715	592.0	213.325	524.88	-98.23	1.0	100.0	1	947.0000000000001	237.0															
	1716	607.0	216.68000000000004	528.27	-94.91	1.0	100.0	1	947.0000000000001	267.0															
	1717	592.0	217.915	529.5	-93.67	0.993595	100.0	1	947.0000000000001	237.0															
	1718	592.0	217.03	528.59	-94.53	0.9987595	100.0	1	947.0000000000001	237.0															
	1719	592.0	217.93999999999997	529.53	-93.65	1.0	100.0	1	947.0000000000001	237.0															
	1720	592.0	192.575	504.13	-118.97999999999999	1.0	100.0	1	947.0000000000001	237.0															
	1721	182.5	33.75	104.81	-37.31	1.0	100.0	1	240.0	125.0															
	1906	101.64	-3.6799999999999997	69.06	-76.42	1.0	100.0	1	169.4	33.88															
	1907	101.64	-3.71	69.08	-76.5	1.0	100.0	1	169.4	33.88															
	1908	101.64	-3.785	68.92	-76.49	1.0	100.0	1	169.4	33.88															
	1909	101.64	-3.8599999999999994	68.97	-76.69	1.0	100.0	1	169.4	33.88															
	1910	101.64	-3.74	69.1	-76.58	1.0	100.0	1	169.4	33.88															
	1911	101.64	-3.72	69.1	-76.54	1.0	100.0	1	169.4	33.88															
	1912	101.64	-4.09	68.67	-76.85	1.0	100.0	1	169.4	33.88															
	1913	101.64	-4.115	68.69	-76.92	1.0	100.0	1	169.4	33.88															
	1722	336.8	72.9	272.9	-127.1	1.0	100.0	1	456.80000000000007	216.8															
	1723	195.0	39.71	159.71	-80.29	1.005505	100.0	1	260.0	130.0															
	1724	0.0	0.0	198.66	-190.41	1.0	100.0	0	585.0	250.0															
	1725	417.5	4.815	199.31	-189.68	1.0	100.0	1	585.0	250.0															
	1919	11.99	0.745	20.64	-19.15	1.0	100.0	1	19.98	4.0															
	1920	14.39	0.525	20.43	-19.38	1.0	100.0	1	23.98	4.8															
	1921	14.39	1.17	21.0	-18.66	1.0	100.0	1	23.98	4.8															
	1922	14.39	0.865	20.73	-19.0	1.0	100.0	1	23.98	4.8															
	1923	14.39	1.445	21.26	-18.37	1.003055	100.0	1	23.98	4.8															
	1924	14.39	1.445	21.26	-18.37	1.000705	100.0	1	23.98	4.8															
	1726	21.0	0.48	9.31	-8.35	1.0	100.0	1	35.0	7.000000000000001															
	1727	21.0	0.29	9.12	-8.54	1.0	100.0	1	35.0	7.000000000000001															
	1728	21.0	-1.465	10.16	-13.089999999999998	1.0	100.0	1	35.0	7.000000000000001															
	1928	21.0	0.48	9.31	-8.35	1.0	100.0	1	35.0	7.000000000000001															
	1729	177.5	-20.12	104.52	-144.76	0.9963875	100.0	1	235.0	120.0															
	1931	43.8	5.56	47.31	-36.19	1.0	100.0	1	73.0	14.6															
	1932	41.4	9.295	51.13999999999999	-32.55	0.9964755	100.0	1	69.0	13.8															
...
];

%% branch data
%    f_bus    t_bus    r    x    b    rateA    rateB    rateC    ratio    angle    status    angmin    angmax
mpc.branch = [
	1833	1	0.002607	0.017462	0.0324	540.0	540.0	540.0	0	0	1	-29.999999999999996	29.999999999999996								
	29	2	2.1e-5	0.000125	0.1386	737.0	737.0	737.0	0	0	1	-29.999999999999996	29.999999999999996								
	675	2	0.000145	0.001877	0.0635	2487.0	2487.0	2487.0	0	0	1	-29.999999999999996	29.999999999999996								
	1271	2	0.000319	0.003234	0.0838	1841.0	1841.0	1841.0	0	0	1	-29.999999999999996	29.999999999999996								
	30	2	2.1e-5	0.000125	0.1386	737.0	737.0	737.0	0	0	1	-29.999999999999996	29.999999999999996								
	142	3	0.006163	0.041067	0.0759	446.0	446.0	446.0	0	0	1	-29.999999999999996	29.999999999999996								
	677	3	0.000652	0.004369	0.0081	558.0	558.0	558.0	0	0	1	-29.999999999999996	29.999999999999996								
	1048	4	0.009733	0.034089	0.0185	905.0000000000001	905.0000000000001	905.0000000000001	0	0	1	-29.999999999999996	29.999999999999996								
	101	5	0.000277	0.002015	0.003	288.0	288.0	288.0	0	0	1	-29.999999999999996	29.999999999999996								
	286	6	0.00881	0.033995	0.0607	289.0	289.0	289.0	0	0	1	-29.999999999999996	29.999999999999996								
	329	6	0.004642	0.019832	0.0354	254.99999999999997	254.99999999999997	254.99999999999997	0	0	1	-29.999999999999996	29.999999999999996								
	737	5	0.008861	0.03506	0.0623	288.0	288.0	288.0	0	0	1	-29.999999999999996	29.999999999999996								
	760	5	0.006993	0.032869	0.0557	254.99999999999997	254.99999999999997	254.99999999999997	0	0	1	-29.999999999999996	29.999999999999996								
	1330	6	0.002173	0.008731	0.0152	3440.9999999999995	3440.9999999999995	3440.9999999999995	0	0	1	-29.999999999999996	29.999999999999996								
	1350	5	0.00077	0.003121	0.0051	9629.0	9629.0	9629.0	0	0	1	-29.999999999999996	29.999999999999996								
	1523	6	0.004109	0.016138	0.0284	288.0	288.0	288.0	0	0	1	-29.999999999999996	29.999999999999996								
	102	8	8.3e-5	0.000907	0.0202	1034.0	1034.0	1034.0	0	0	1	-29.999999999999996	29.999999999999996								
	316	8	0.000552	0.006726	0.0939	1786.0	1786.0	1786.0	0	0	1	-29.999999999999996	29.999999999999996								
	623	8	0.000512	0.008012	0.2455	2462.0	2462.0	2462.0	0	0	1	-29.999999999999996	29.999999999999996								
	882	8	0.001107	0.00918	0.1906	1644.0000000000002	1644.0000000000002	1644.0000000000002	0	0	1	-29.999999999999996	29.999999999999996								
	103	7	6.2e-5	0.000741	0.0173	1095.0	1095.0	1095.0	0	0	1	-29.999999999999996	29.999999999999996								
	623	8	0.000512	0.008019	0.2455	2462.0	2462.0	2462.0	0	0	1	-29.999999999999996	29.999999999999996								
	623	7	0.001153	0.013123	0.1841	1433.0	1433.0	1433.0	0	0	1	-29.999999999999996	29.999999999999996								
	113	9	0.000158	0.000672	0.0719	331.0	331.0	331.0	0	0	1	-29.999999999999996	29.999999999999996								
	1134	9	4.5e-5	8.9e-5	0.002	268.0	268.0	268.0	0	0	1	-29.999999999999996	29.999999999999996								
	346	10	0.00478	0.028622	0.0547	455.0	455.0	455.0	0	0	1	-29.999999999999996	29.999999999999996								
	345	10	0.00478	0.028583	0.0547	455.0	455.0	455.0	0	0	1	-29.999999999999996	29.999999999999996								
	106	11	0.000257	0.000514	0.0294	53862.0	53862.0	53862.0	0	0	1	-29.999999999999996	29.999999999999996								
	758	12	0.000257	0.002153	0.2147	451.99999999999994	451.99999999999994	451.99999999999994	0	0	1	-29.999999999999996	29.999999999999996								
	962	12	0.000277	0.000869	0.0931	480.99999999999994	480.99999999999994	480.99999999999994	0	0	1	-29.999999999999996	29.999999999999996								
	955	13	0.000237	0.00083	0.1863	268.0	268.0	268.0	0	0	1	-29.999999999999996	29.999999999999996								
	995	13	0.000178	0.000612	0.1377	268.0	268.0	268.0	0	0	1	-29.999999999999996	29.999999999999996								
	39	14	0.002568	0.011753	0.0203	424.0	424.0	424.0	0	0	1	-29.999999999999996	29.999999999999996								
	1428	14	0.002568	0.011615	0.0228	290.0	290.0	290.0	0	0	1	-29.999999999999996	29.999999999999996								
	1054	16	9.9e-5	0.00077	0.078	379.0	379.0	379.0	0	0	1	-29.999999999999996	29.999999999999996								
	1054	15	9.9e-5	0.00077	0.077	379.0	379.0	379.0	0	0	1	-29.999999999999996	29.999999999999996								
	1428	17	0.000514	0.003437	0.0061	290.0	290.0	290.0	0	0	1	-29.999999999999996	29.999999999999996								
	1432	17	0.005476	0.036879	0.1255	522.0	522.0	522.0	0	0	1	-29.999999999999996	29.999999999999996								
	39	17	0.000514	0.003457	0.0061	418.0	418.0	418.0	0	0	1	-29.999999999999996	29.999999999999996								
	869	18	0.003477	0.01118	0.0187	304.0	304.0	304.0	0	0	1	-29.999999999999996	29.999999999999996								
	1089	18	0.000612	0.003121	0.0152	270.0	270.0	270.0	0	0	1	-29.999999999999996	29.999999999999996								
	1164	20	2.4e-5	0.000144	0.0213	701.0	701.0	701.0	0	0	1	-29.999999999999996	29.999999999999996								
	1164	19	7.1e-5	0.000162	0.0162	250.99999999999997	250.99999999999997	250.99999999999997	0	0	1	-29.999999999999996	29.999999999999996								
	972	21	0.000257	0.001165	0.002	405.0	405.0	405.0	0	0	1	-29.999999999999996	29.999999999999996								
	476	22	0.005709	0.037926	0.0688	492.0	492.0	492.0	0	0	1	-29.999999999999996	29.999999999999996								
	1497	22	0.001758	0.011654	0.0208	492.0	492.0	492.0	0	0	1	-29.999999999999996	29.999999999999996								
	69	23	0.001383	0.009462	0.0172	463.0	463.0	463.0	0	0	1	-29.999999999999996	29.999999999999996								
	446	23	0.00156	0.006933	0.0121	432.0	432.0	432.0	0	0	1	-29.999999999999996	29.999999999999996								
	605	23	0.006376	0.028733	0.0506	432.0	432.0	432.0	0	0	1	-29.999999999999996	29.999999999999996								
	987	23	0.00158	0.010627	0.0192	480.99999999999994	480.99999999999994	480.99999999999994	0	0	1	-29.999999999999996	29.999999999999996								
	845	25	0.001086	0.003536	0.3766	505.99999999999994	505.99999999999994	505.99999999999994	0	0	1	-29.999999999999996	29.999999999999996								
	845	25	0.001086	0.003536	0.3766	505.99999999999994	505.99999999999994	505.99999999999994	0	0	1	-29.999999999999996	29.999999999999996								
	123	27	0.004741	0.020385	0.0334	1479.0	1479.0	1479.0	0	0	1	-29.999999999999996	29.999999999999996								
	1479	27	0.009027	0.048869	0.084	351.0	351.0	351.0	0	0	1	-29.999999999999996	29.999999999999996								
	1500	27	0.003516	0.016257	0.0273	311.0	311.0	311.0	0	0	1	-29.999999999999996	29.999999999999996								
	289	28	0.000514	0.003417	0.0278	451.99999999999994	451.99999999999994	451.99999999999994	0	0	1	-29.999999999999996	29.999999999999996								
	307	28	0.001084	0.007198	0.0132	448.00000000000006	448.00000000000006	448.00000000000006	0	0	1	-29.999999999999996	29.999999999999996								
	1451	28	0.000523	0.002436	0.0167	348.0	348.0	348.0	0	0	1	-29.999999999999996	29.999999999999996								
	289	28	0.000514	0.003457	0.0203	356.0	356.0	356.0	0	0	1	-29.999999999999996	29.999999999999996								
	307	28	0.001086	0.007249	0.0132	540.0	540.0	540.0	0	0	1	-29.999999999999996	29.999999999999996								
	1450	28	0.000553	0.002469	0.0157	405.0	405.0	405.0	0	0	1	-29.999999999999996	29.999999999999996								
	307	28	0.001086	0.007269	0.0132	540.0	540.0	540.0	0	0	1	-29.999999999999996	29.999999999999996								
	842	31	0.001837	0.011694	0.0759	467.0	467.0	467.0	0	0	1	-29.999999999999996	29.999999999999996								
	960	31	0.001067	0.007131	0.0132	413.0	413.0	413.0	0	0	1	-29.999999999999996	29.999999999999996								
	1269	31	0.001284	0.008593	0.0152	541.0	541.0	541.0	0	0	1	-29.999999999999996	29.999999999999996								
	1270	31	0.001284	0.008593	0.0162	541.0	541.0	541.0	0	0	1	-29.999999999999996	29.999999999999996								
	1270	31	0.001284	0.008533	0.0162	541.0	541.0	541.0	0	0	1	-29.999999999999996	29.999999999999996								
	212	33	0.000494	0.000928	0.0699	29202.999999999996	29202.999999999996	29202.999999999996	0	0	1	-29.999999999999996	29.999999999999996								
	326	33	0.000184	0.00159	0.1661	422.0	422.0	422.0	0	0	1	-29.999999999999996	29.999999999999996								
	1153	33	0.000198	0.001711	0.1711	385.0	385.0	385.0	0	0	1	-29.999999999999996	29.999999999999996								
	1170	33	0.000751	0.003358	0.1534	385.0	385.0	385.0	0	0	1	-29.999999999999996	29.999999999999996								
	343	34	0.000178	0.001047	0.1499	451.99999999999994	451.99999999999994	451.99999999999994	0	0	1	-29.999999999999996	29.999999999999996								
	955	34	0.000316	0.002232	0.2774	451.99999999999994	451.99999999999994	451.99999999999994	0	0	1	-29.999999999999996	29.999999999999996								
	1257	35	0.037227	0.106836	0.0328	270.0	270.0	270.0	0	0	1	-29.999999999999996	29.999999999999996								
	1439	35	0.006089	0.020756	0.0067	1408.0	1408.0	1408.0	0	0	1	-29.999999999999996	29.999999999999996								
	846	36	0.000729	0.005118	0.0933	389.0	389.0	389.0	0	0	1	-29.999999999999996	29.999999999999996								
	846	36	0.000755	0.005235	0.0909	419.00000000000006	419.00000000000006	419.00000000000006	0	0	1	-29.999999999999996	29.999999999999996								
	228	37	0.001787	0.01946	0.4214	1579.0	1579.0	1579.0	0	0	1	-29.999999999999996	29.999999999999996								
	477	38	0.001719	0.00877	0.0157	321.0	321.0	321.0	0	0	1	-29.999999999999996	29.999999999999996								
	1179	38	0.009165	0.04318	0.077	321.0	321.0	321.0	0	0	1	-29.999999999999996	29.999999999999996								
	134	39	0.004879	0.032454	0.0602	487.0	487.0	487.0	0	0	1	-29.999999999999996	29.999999999999996								
	195	39	0.006341	0.042746	0.0785	418.0	418.0	418.0	0	0	1	-29.999999999999996	29.999999999999996								
	208	39	0.006914	0.031249	0.0547	327.0	327.0	327.0	0	0	1	-29.999999999999996	29.999999999999996								
	296	40	0.000582	0.007652	0.2643	2487.0	2487.0	2487.0	0	0	1	-29.999999999999996	29.999999999999996								
	766	40	0.001648	0.021634	0.748	1470.0	1470.0	1470.0	0	0	1	-29.999999999999996	29.999999999999996								
	950	40	0.000838	0.014301	0.5198	2227.0	2227.0	2227.0	0	0	1	-29.999999999999996	29.999999999999996								
	1282	40	0.001163	0.015312	0.5285	2077.0	2077.0	2077.0	0	0	1	-29.999999999999996	29.999999999999996								
	296	40	0.000575	0.007576	0.2614	2487.0	2487.0	2487.0	0	0	1	-29.999999999999996	29.999999999999996								
	766	40	0.001646	0.021633	0.7479	1470.0	1470.0	1470.0	0	0	1	-29.999999999999996	29.999999999999996								
	950	40	0.000838	0.014287	0.5198	2229.0	2229.0	2229.0	0	0	1	-29.999999999999996	29.999999999999996								
	1281	40	0.00117	0.015339	0.5285	2074.0	2074.0	2074.0	0	0	1	-29.999999999999996	29.999999999999996								
	1282	40	0.001821	0.017874	0.4318	1382.0	1382.0	1382.0	0	0	1	-29.999999999999996	29.999999999999996								
	558	41	0.000672	0.003477	0.0365	254.0	254.0	254.0	0	0	1	-29.999999999999996	29.999999999999996								
	1420	42	0.000632	0.004188	0.0081	471.0	471.0	471.0	0	0	1	-29.999999999999996	29.999999999999996								
	1420	43	0.000612	0.004148	0.0071	471.0	471.0	471.0	0	0	1	-29.999999999999996	29.999999999999996								
	1040	44	0.000672	0.004405	0.0081	541.0	541.0	541.0	0	0	1	-29.999999999999996	29.999999999999996								
	1521	44	0.000968	0.004602	0.0081	304.0	304.0	304.0	0	0	1	-29.999999999999996	29.999999999999996								
	1040	44	0.000632	0.004444	0.0081	440.00000000000006	440.00000000000006	440.00000000000006	0	0	1	-29.999999999999996	29.999999999999996								
	1524	45	0.001975	0.013215	0.0243	541.0	541.0	541.0	0	0	1	-29.999999999999996	29.999999999999996								
	1525	45	0.001956	0.013037	0.0243	2348.0	2348.0	2348.0	0	0	1	-29.999999999999996	29.999999999999996								
	1321	46	0.002933	0.010267	0.0032	3004.0	3004.0	3004.0	0	0	1	-29.999999999999996	29.999999999999996								
	1429	46	0.0028	0.007511	0.0022	4003.0	4003.0	4003.0	0	0	1	-29.999999999999996	29.999999999999996								
	49	48	2.0e-5	0.000198	0.0121	261.0	261.0	261.0	0	0	1	-29.999999999999996	29.999999999999996								
	49	47	2.0e-5	0.000198	0.0142	261.0	261.0	261.0	0	0	1	-29.999999999999996	29.999999999999996								
	298	49	0.002037	0.010904	0.0187	352.0	352.0	352.0	0	0	1	-29.999999999999996	29.999999999999996								
	318	49	0.000415	0.002015	0.1266	428.0	428.0	428.0	0	0	1	-29.999999999999996	29.999999999999996								
	370	49	0.000395	0.00156	0.1893	426.0	426.0	426.0	0	0	1	-29.999999999999996	29.999999999999996								
	608	49	4.0e-5	0.000178	0.0152	169660.0	169660.0	169660.0	0	0	1	-29.999999999999996	29.999999999999996								
	836	49	0.001323	0.012444	0.0678	935.0	935.0	935.0	0	0	1	-29.999999999999996	29.999999999999996								
	1227	49	0.000454	0.002133	0.2511	268.0	268.0	268.0	0	0	1	-29.999999999999996	29.999999999999996								
	1381	49	0.000119	0.000691	0.1002	387.0	387.0	387.0	0	0	1	-29.999999999999996	29.999999999999996								
	1411	49	0.00083	0.005175	0.0203	323.0	323.0	323.0	0	0	1	-29.999999999999996	29.999999999999996								
	836	49	0.001314	0.012115	0.0673	943.0	943.0	943.0	0	0	1	-29.999999999999996	29.999999999999996								
	1379	49	5.9e-5	0.000217	0.0496	323.0	323.0	323.0	0	0	1	-29.999999999999996	29.999999999999996								
	1378	49	5.9e-5	0.000217	0.0466	323.0	323.0	323.0	0	0	1	-29.999999999999996	29.999999999999996								
	1169	50	0.000158	0.000948	0.002	348.0	348.0	348.0	0	0	1	-29.999999999999996	29.999999999999996								
	704	51	0.001521	0.007076	0.0118	302.0	302.0	302.0	0	0	1	-29.999999999999996	29.999999999999996								
	1265	51	0.002469	0.011457	0.0203	315.0	315.0	315.0	0	0	1	-29.999999999999996	29.999999999999996								
	404	52	0.001442	0.009699	0.0172	566.0	566.0	566.0	0	0	1	-29.999999999999996	29.999999999999996								
	427	52	0.001422	0.009541	0.0172	566.0	566.0	566.0	0	0	1	-29.999999999999996	29.999999999999996								
	459	53	0.004681	0.028227	0.0516	440.00000000000006	440.00000000000006	440.00000000000006	0	0	1	-29.999999999999996	29.999999999999996								
	765	53	0.001185	0.008	0.0152	575.0	575.0	575.0	0	0	1	-29.999999999999996	29.999999999999996								
	1529	53	0.005333	0.02722	0.0491	440.00000000000006	440.00000000000006	440.00000000000006	0	0	1	-29.999999999999996	29.999999999999996								
	766	54	0.000145	0.001911	0.0661	2487.0	2487.0	2487.0	0	0	1	-29.999999999999996	29.999999999999996								
	1416	54	0.000253	0.003323	0.1148	2487.0	2487.0	2487.0	0	0	1	-29.999999999999996	29.999999999999996								
	1101	56	0.000494	0.002252	0.004	405.99999999999994	405.99999999999994	405.99999999999994	0	0	1	-29.999999999999996	29.999999999999996								
	1101	55	0.000494	0.002252	0.004	405.99999999999994	405.99999999999994	405.99999999999994	0	0	1	-29.999999999999996	29.999999999999996								
	320	1827	0.009857	0.04478	0.077	405.0	405.0	405.0	0	0	1	-29.999999999999996	29.999999999999996								
	813	1827	0.017106	0.078321	0.1387	362.0	362.0	362.0	0	0	1	-29.999999999999996	29.999999999999996								
	1287	1827	0.010272	0.048691	0.0866	354.0	354.0	354.0	0	0	1	-29.999999999999996	29.999999999999996								
	461	57	0.012978	0.059338	0.1002	409.0	409.0	409.0	0	0	1	-29.999999999999996	29.999999999999996								
	827	57	0.01197	0.056632	0.0942	262.0	262.0	262.0	0	0	1	-29.999999999999996	29.999999999999996								
	1429	58	0.000578	0.001156	0.0004	24825.0	24825.0	24825.0	0	0	1	-29.999999999999996	29.999999999999996								
	1090	60	0.000316	0.001679	0.0192	17970.0	17970.0	17970.0	0	0	1	-29.999999999999996	29.999999999999996								
	1090	59	0.000316	0.001679	0.0192	17970.0	17970.0	17970.0	0	0	1	-29.999999999999996	29.999999999999996								
	713	61	0.000277	0.000573	0.0334	48541.0	48541.0	48541.0	0	0	1	-29.999999999999996	29.999999999999996								
	1032	62	0.001055	0.004836	0.0081	432.0	432.0	432.0	0	0	1	-29.999999999999996	29.999999999999996								
	998	63	0.002114	0.008553	0.0152	346.0	346.0	346.0	0	0	1	-29.999999999999996	29.999999999999996								
	342	65	0.000158	0.000652	0.084	46138.0	46138.0	46138.0	0	0	1	-29.999999999999996	29.999999999999996								
	894	64	0.000198	0.000731	0.0942	385.0	385.0	385.0	0	0	1	-29.999999999999996	29.999999999999996								
	1265	66	0.00324	0.012616	0.0225	302.0	302.0	302.0	0	0	1	-29.999999999999996	29.999999999999996								
	1397	67	0.007522	0.029736	0.0496	303.0	303.0	303.0	0	0	1	-29.999999999999996	29.999999999999996								
	1543	67	0.006809	0.03043	0.0521	380.0	380.0	380.0	0	0	1	-29.999999999999996	29.999999999999996								
	404	69	0.002153	0.014736	0.0273	565.0	565.0	565.0	0	0	1	-29.999999999999996	29.999999999999996								
	469	68	0.000581	0.003838	0.0071	507.0	507.0	507.0	0	0	1	-29.999999999999996	29.999999999999996								
	791	68	0.001857	0.020306	0.0557	566.0	566.0	566.0	0	0	1	-29.999999999999996	29.999999999999996								
	1348	69	0.002331	0.015526	0.0278	549.0	549.0	549.0	0	0	1	-29.999999999999996	29.999999999999996								
	1480	68	0.001345	0.008968	0.0162	566.0	566.0	566.0	0	0	1	-29.999999999999996	29.999999999999996								
	470	68	0.000573	0.003911	0.0071	415.00000000000006	415.00000000000006	415.00000000000006	0	0	1	-29.999999999999996	29.999999999999996								
	640	68	0.001896	0.012701	0.0233	501.0	501.0	501.0	0	0	1	-29.999999999999996	29.999999999999996								
	556	70	0.000602	0.006717	0.1357	1725.0	1725.0	1725.0	0	0	1	-29.999999999999996	29.999999999999996								
	792	70	0.00063	0.007098	0.1588	1916.0	1916.0	1916.0	0	0	1	-29.999999999999996	29.999999999999996								
	1421	70	0.000367	0.004631	0.1126	2275.0	2275.0	2275.0	0	0	1	-29.999999999999996	29.999999999999996								
	792	70	0.000472	0.006201	0.2137	2487.0	2487.0	2487.0	0	0	1	-29.999999999999996	29.999999999999996								
	1416	70	0.001504	0.019298	0.4577	1648.0	1648.0	1648.0	0	0	1	-29.999999999999996	29.999999999999996								
	203	72	0.000158	0.001106	0.1357	461.00000000000006	461.00000000000006	461.00000000000006	0	0	1	-29.999999999999996	29.999999999999996								
	375	71	0.000219	0.00193	0.1954	407.0	407.0	407.0	0	0	1	-29.999999999999996	29.999999999999996								
	403	71	0.000158	0.000909	0.1316	428.0	428.0	428.0	0	0	1	-29.999999999999996	29.999999999999996								
	982	71	0.000411	0.00356	0.3564	416.0	416.0	416.0	0	0	1	-29.999999999999996	29.999999999999996								
	1104	72	0.000158	0.001264	0.1286	416.0	416.0	416.0	0	0	1	-29.999999999999996	29.999999999999996								
	842	73	0.000198	0.001383	0.003	420.0	420.0	420.0	0	0	1	-29.999999999999996	29.999999999999996								
	842	74	0.000217	0.001402	0.003	420.0	420.0	420.0	0	0	1	-29.999999999999996	29.999999999999996								
	387	75	0.001304	0.008691	0.0152	525.0	525.0	525.0	0	0	1	-29.999999999999996	29.999999999999996								
	842	75	0.000691	0.004662	0.0091	541.0	541.0	541.0	0	0	1	-29.999999999999996	29.999999999999996								
	78	76	9.9e-5	0.000415	0.0456	434.0	434.0	434.0	0	0	1	-29.999999999999996	29.999999999999996								
	300	77	1.0e-6	0.000104	0.078	1051.0	1051.0	1051.0	0	0	1	-29.999999999999996	29.999999999999996								
	436	77	0.000353	0.004584	0.1184	2357.0	2357.0	2357.0	0	0	1	-29.999999999999996	29.999999999999996								
	705	77	0.000699	0.009179	0.3177	2487.0	2487.0	2487.0	0	0	1	-29.999999999999996	29.999999999999996								
	436	77	0.000353	0.004584	0.1184	2357.0	2357.0	2357.0	0	0	1	-29.999999999999996	29.999999999999996								
	705	77	0.000734	0.009245	0.3148	2487.0	2487.0	2487.0	0	0	1	-29.999999999999996	29.999999999999996								
	302	77	7.0e-6	0.000104	0.0029	1382.0	1382.0	1382.0	0	0	1	-29.999999999999996	29.999999999999996								
	301	77	7.0e-6	0.000104	0.0029	1382.0	1382.0	1382.0	0	0	1	-29.999999999999996	29.999999999999996								
	435	78	0.002556	0.017333	0.0805	418.0	418.0	418.0	0	0	1	-29.999999999999996	29.999999999999996								
	1040	78	0.008849	0.062617	0.1144	471.0	471.0	471.0	0	0	1	-29.999999999999996	29.999999999999996								
	1431	79	2.2e-5	9.9e-5	0.001	405.0	405.0	405.0	0	0	1	-29.999999999999996	29.999999999999996								
	1430	80	2.0e-5	9.9e-5	0.0	306724.0	306724.0	306724.0	0	0	1	-29.999999999999996	29.999999999999996								
	745	81	0.000573	0.002588	0.0051	388.0	388.0	388.0	0	0	1	-29.999999999999996	29.999999999999996								
	1432	82	2.0e-5	0.000198	0.001	566.0	566.0	566.0	0	0	1	-29.999999999999996	29.999999999999996								
	626	83	0.000138	0.00077	0.001	272.0	272.0	272.0	0	0	1	-29.999999999999996	29.999999999999996								
	181	84	0.001171	0.007842	0.0166	296.0	296.0	296.0	0	0	1	-29.999999999999996	29.999999999999996								
	854	84	0.002212	0.014979	0.0388	401.0	401.0	401.0	0	0	1	-29.999999999999996	29.999999999999996								
	1186	85	0.000691	0.002588	0.1691	11556.0	11556.0	11556.0	0	0	1	-29.999999999999996	29.999999999999996								
	1187	85	0.000691	0.002588	0.1509	11556.0	11556.0	11556.0	0	0	1	-29.999999999999996	29.999999999999996								
	553	86	0.001627	0.014855	0.3899	1717.0000000000002	1717.0000000000002	1717.0000000000002	0	0	1	-29.999999999999996	29.999999999999996								
	553	86	0.001676	0.013899	0.4216	1711.0	1711.0	1711.0	0	0	1	-29.999999999999996	29.999999999999996								
	519	87	0.003081	0.020286	0.0365	420.0	420.0	420.0	0	0	1	-29.999999999999996	29.999999999999996								
	870	87	0.00241	0.01603	0.0294	440.00000000000006	440.00000000000006	440.00000000000006	0	0	1	-29.999999999999996	29.999999999999996								
	1300	88	0.000176	0.001385	0.1521	378.0	378.0	378.0	0	0	1	-29.999999999999996	29.999999999999996								
	1351	88	0.001817	0.012642	0.0233	440.00000000000006	440.00000000000006	440.00000000000006	0	0	1	-29.999999999999996	29.999999999999996								
	1351	88	0.001865	0.012502	0.0229	501.99999999999994	501.99999999999994	501.99999999999994	0	0	1	-29.999999999999996	29.999999999999996								
	283	89	0.007422	0.024489	0.0081	1227.0	1227.0	1227.0	0	0	1	-29.999999999999996	29.999999999999996								
	467	89	0.028356	0.083956	0.0274	355.0	355.0	355.0	0	0	1	-29.999999999999996	29.999999999999996								
	729	89	0.016844	0.058489	0.0198	516.0	516.0	516.0	0	0	1	-29.999999999999996	29.999999999999996								
	1335	89	0.009067	0.028133	0.0095	1069.0	1069.0	1069.0	0	0	1	-29.999999999999996	29.999999999999996								
	1433	90	0.000593	0.00401	0.0071	471.0	471.0	471.0	0	0	1	-29.999999999999996	29.999999999999996								
	376	91	0.010351	0.032395	0.0562	902.9999999999999	902.9999999999999	902.9999999999999	0	0	1	-29.999999999999996	29.999999999999996								
	1489	91	0.009146	0.025778	0.041	1123.0	1123.0	1123.0	0	0	1	-29.999999999999996	29.999999999999996								
	934	93	0.000395	0.006648	0.2426	2487.0	2487.0	2487.0	0	0	1	-29.999999999999996	29.999999999999996								
	950	93	0.000492	0.008345	0.3032	2487.0	2487.0	2487.0	0	0	1	-29.999999999999996	29.999999999999996								
	1062	92	0.001198	0.015699	0.5401	2026.0000000000002	2026.0000000000002	2026.0000000000002	0	0	1	-29.999999999999996	29.999999999999996								
...
];

%%-----  OPF Data  -----%%
%% cost data
%    1    startup    shutdown    n    x1    y1    ...    xn    yn
%    2    startup    shutdown    n    c(n-1)    ...    c0
mpc.gencost = [
	2	0.0	0.0	2	36.879614	0.0
	2	0.0	0.0	2	102.81870300000001	0.0
	2	0.0	0.0	2	123.867753	0.0
	2	0.0	0.0	2	106.23021000000001	0.0
	2	0.0	0.0	2	111.337642	0.0
	2	0.0	0.0	2	37.203873	0.0
	2	0.0	0.0	2	49.778795	0.0
	2	0.0	0.0	2	27.586445000000005	0.0
	2	0.0	0.0	2	21.586989	0.0
	2	0.0	0.0	2	102.922605	0.0
	2	0.0	0.0	2	23.347606000000003	0.0
	2	0.0	0.0	2	110.7211	0.0
	2	0.0	0.0	2	26.419861	0.0
	2	0.0	0.0	2	30.601438	0.0
	2	0.0	0.0	2	42.569564	0.0
	2	0.0	0.0	2	22.993553	0.0
	2	0.0	0.0	2	45.335599	0.0
	2	0.0	0.0	2	34.93723	0.0
	2	0.0	0.0	2	30.757753000000005	0.0
	2	0.0	0.0	2	30.622515	0.0
	2	0.0	0.0	2	46.406787	0.0
	2	0.0	0.0	2	31.911806	0.0
	2	0.0	0.0	2	31.483516	0.0
	2	0.0	0.0	2	31.323377	0.0
	2	0.0	0.0	2	30.74473	0.0
	2	0.0	0.0	2	13.975616	0.0
	2	0.0	0.0	2	48.070538	0.0
	2	0.0	0.0	2	111.022896	0.0
	2	0.0	0.0	2	44.772489	0.0
	2	0.0	0.0	2	43.154786	0.0
	2	0.0	0.0	2	39.003663	0.0
	2	0.0	0.0	2	29.811093	0.0
	2	0.0	0.0	2	0.0	0.0
	2	0.0	0.0	2	34.301794	0.0
	2	0.0	0.0	2	44.86095600000001	0.0
	2	0.0	0.0	2	120.91811300000002	0.0
	2	0.0	0.0	2	24.962467000000004	0.0
	2	0.0	0.0	2	32.859582	0.0
	2	0.0	0.0	2	41.589808	0.0
	2	0.0	0.0	2	35.660132	0.0
	2	0.0	0.0	2	89.794302	0.0
	2	0.0	0.0	2	32.09503	0.0
	2	0.0	0.0	2	34.473234	0.0
	2	0.0	0.0	2	43.179533	0.0
	2	0.0	0.0	2	106.557899	0.0
	2	0.0	0.0	2	14.407526	0.0
	2	0.0	0.0	2	119.630609	0.0
	2	0.0	0.0	2	116.533424	0.0
	2	0.0	0.0	2	126.010118	0.0
	2	0.0	0.0	2	6.745408	0.0
	2	0.0	0.0	2	107.069234	0.0
	2	0.0	0.0	2	29.420074	0.0
	2	0.0	0.0	2	31.885121000000005	0.0
	2	0.0	0.0	2	35.833663	0.0
	2	0.0	0.0	2	119.43155800000001	0.0
	2	0.0	0.0	2	121.989784	0.0
	2	0.0	0.0	2	104.195581	0.0
	2	0.0	0.0	2	65.052207	0.0
	2	0.0	0.0	2	44.924115	0.0
	2	0.0	0.0	2	42.564627	0.0
	2	0.0	0.0	2	6.450082	0.0
	2	0.0	0.0	2	24.823632	0.0
	2	0.0	0.0	2	30.414781000000005	0.0
	2	0.0	0.0	2	31.215842	0.0
	2	0.0	0.0	2	33.015136	0.0
	2	0.0	0.0	2	31.598869	0.0
	2	0.0	0.0	2	28.829022000000002	0.0
	2	0.0	0.0	2	20.078606	0.0
	2	0.0	0.0	2	50.52149500000001	0.0
	2	0.0	0.0	2	95.047113	0.0
	2	0.0	0.0	2	114.29584500000001	0.0
	2	0.0	0.0	2	103.134064	0.0
	2	0.0	0.0	2	30.57954	0.0
	2	0.0	0.0	2	20.312818	0.0
	2	0.0	0.0	2	44.670303	0.0
	2	0.0	0.0	2	43.533901	0.0
	2	0.0	0.0	2	106.652079	0.0
	2	0.0	0.0	2	25.143778	0.0
	2	0.0	0.0	2	18.119992	0.0
	2	0.0	0.0	2	28.421775000000004	0.0
	2	0.0	0.0	2	15.660903	0.0
	2	0.0	0.0	2	5.667664	0.0
	2	0.0	0.0	2	19.797917	0.0
	2	0.0	0.0	2	109.357263	0.0
	2	0.0	0.0	2	116.925701	0.0
	2	0.0	0.0	2	38.911893	0.0
	2	0.0	0.0	2	103.504481	0.0
	2	0.0	0.0	2	29.879728	0.0
	2	0.0	0.0	2	54.667442	0.0
	2	0.0	0.0	2	35.644799	0.0
	2	0.0	0.0	2	100.15199000000001	0.0
	2	0.0	0.0	2	53.625088	0.0
	2	0.0	0.0	2	30.773174	0.0
	2	0.0	0.0	2	129.451325	0.0
	2	0.0	0.0	2	45.436313	0.0
	2	0.0	0.0	2	39.09167	0.0
	2	0.0	0.0	2	99.401859	0.0
	2	0.0	0.0	2	21.662259	0.0
	2	0.0	0.0	2	45.541664000000004	0.0
	2	0.0	0.0	2	49.469415	0.0
	2	0.0	0.0	2	32.311689	0.0
	2	0.0	0.0	2	119.347719	0.0
	2	0.0	0.0	2	23.547369	0.0
	2	0.0	0.0	2	2.859808	0.0
	2	0.0	0.0	2	6.864972000000001	0.0
	2	0.0	0.0	2	99.49715200000001	0.0
	2	0.0	0.0	2	31.789207	0.0
	2	0.0	0.0	2	32.540539	0.0
	2	0.0	0.0	2	6.7936000000000005	0.0
	2	0.0	0.0	2	34.083995	0.0
	2	0.0	0.0	2	54.29734100000001	0.0
	2	0.0	0.0	2	25.405366	0.0
	2	0.0	0.0	2	26.762535	0.0
	2	0.0	0.0	2	27.545621	0.0
	2	0.0	0.0	2	33.616738	0.0
	2	0.0	0.0	2	37.617069	0.0
	2	0.0	0.0	2	107.88452800000002	0.0
	2	0.0	0.0	2	19.721211	0.0
	2	0.0	0.0	2	25.911063	0.0
	2	0.0	0.0	2	24.383565	0.0
	2	0.0	0.0	2	45.28197099999999	0.0
	2	0.0	0.0	2	30.253167000000005	0.0
	2	0.0	0.0	2	25.853896	0.0
	2	0.0	0.0	2	23.384789	0.0
	2	0.0	0.0	2	6.75884	0.0
	2	0.0	0.0	2	24.457229	0.0
	2	0.0	0.0	2	28.3147	0.0
	2	0.0	0.0	2	29.429072	0.0
	2	0.0	0.0	2	20.273721	0.0
	2	0.0	0.0	2	48.176458	0.0
	2	0.0	0.0	2	34.299742	0.0
	2	0.0	0.0	2	17.076737	0.0
	2	0.0	0.0	2	16.588831	0.0
	2	0.0	0.0	2	19.318277	0.0
	2	0.0	0.0	2	18.680412	0.0
	2	0.0	0.0	2	6.633383	0.0
	2	0.0	0.0	2	41.475369	0.0
	2	0.0	0.0	2	32.07935	0.0
	2	0.0	0.0	2	37.66586	0.0
	2	0.0	0.0	2	22.878714	0.0
	2	0.0	0.0	2	28.952303	0.0
	2	0.0	0.0	2	40.359034	0.0
	2	0.0	0.0	2	34.353015	0.0
	2	0.0	0.0	2	27.111097	0.0
	2	0.0	0.0	2	41.652275	0.0
	2	0.0	0.0	2	27.441246000000003	0.0
	2	0.0	0.0	2	37.797956	0.0
	2	0.0	0.0	2	13.786673	0.0
	2	0.0	0.0	2	112.501633	0.0
	2	0.0	0.0	2	45.18406800000001	0.0
	2	0.0	0.0	2	35.242997	0.0
	2	0.0	0.0	2	29.73272	0.0
	2	0.0	0.0	2	7.072944	0.0
	2	0.0	0.0	2	7.190143000000001	0.0
	2	0.0	0.0	2	29.024814000000003	0.0
	2	0.0	0.0	2	111.97375900000002	0.0
	2	0.0	0.0	2	121.864221	0.0
	2	0.0	0.0	2	123.841827	0.0
	2	0.0	0.0	2	106.668799	0.0
	2	0.0	0.0	2	97.191384	0.0
	2	0.0	0.0	2	101.01189500000001	0.0
	2	0.0	0.0	2	43.474735	0.0
	2	0.0	0.0	2	114.499177	0.0
	2	0.0	0.0	2	34.889776	0.0
	2	0.0	0.0	2	111.696301	0.0
	2	0.0	0.0	2	27.980534	0.0
	2	0.0	0.0	2	30.408853	0.0
	2	0.0	0.0	2	22.166895	0.0
	2	0.0	0.0	2	32.13073	0.0
	2	0.0	0.0	2	22.139349	0.0
	2	0.0	0.0	2	35.693046	0.0
	2	0.0	0.0	2	6.813815	0.0
	2	0.0	0.0	2	25.239496	0.0
	2	0.0	0.0	2	24.058610000000005	0.0
	2	0.0	0.0	2	52.977338	0.0
	2	0.0	0.0	2	22.002061000000005	0.0
	2	0.0	0.0	2	32.412444	0.0
	2	0.0	0.0	2	38.385621	0.0
	2	0.0	0.0	2	23.937604	0.0
	2	0.0	0.0	2	40.588644	0.0
	2	0.0	0.0	2	121.78828600000001	0.0
	2	0.0	0.0	2	22.180489	0.0
	2	0.0	0.0	2	15.118668	0.0
	2	0.0	0.0	2	19.235965	0.0
	2	0.0	0.0	2	41.308626999999994	0.0
	2	0.0	0.0	2	43.331328000000006	0.0
	2	0.0	0.0	2	32.923634	0.0
	2	0.0	0.0	2	37.787385	0.0
	2	0.0	0.0	2	115.799925	0.0
	2	0.0	0.0	2	125.358723	0.0
	2	0.0	0.0	2	106.839232	0.0
	2	0.0	0.0	2	37.470049	0.0
	2	0.0	0.0	2	113.967568	0.0
	2	0.0	0.0	2	115.113942	0.0
	2	0.0	0.0	2	25.222493	0.0
	2	0.0	0.0	2	13.647219	0.0
	2	0.0	0.0	2	103.342463	0.0
	2	0.0	0.0	2	38.215685	0.0
	2	0.0	0.0	2	48.344191	0.0
	2	0.0	0.0	2	27.309325	0.0
...
];

